<?xml version="1.0" encoding="UTF-8"?>
<flow id="b946af6f-e321-4ae0-a052-b88bc2006e31">
  <descriptionCdata><![CDATA[b946af6f-e321-4ae0-a052-b88bc2006e31.67c598ef-87bd-4e69-9510-c7e0af7e9658.description=<pre>Creates (recursively or not) a directory.\n\nInput Parameters\:\npath - The path of the directory to create.\n\nResponses\:\nsuccess - Directory Created.\nfailure - Something went wrong.\n</pre>
]]></descriptionCdata>
  <annotation></annotation>
  <name>crt_flow</name>
  <categories/>
  <inputs>
    <staticBinding id="8f853a92-f44f-4d2c-9eb6-78e55ab884ba">
      <annotation></annotation>
      <assignFromContext>false</assignFromContext>
      <assignToContext>false</assignToContext>
      <inputType>STRING</inputType>
      <isList>false</isList>
      <required>false</required>
      <isPersisted>true</isPersisted>
      <inputSymbol>path</inputSymbol>
      <listDelimiter>,</listDelimiter>
      <value></value>
      <record>false</record>
    </staticBinding>
  </inputs>
  <possibleResponses>
    <opResponse id="a6ae0d6d-e0f9-4112-bc02-0cbd648a68c2">
      <annotation></annotation>
      <name>success</name>
      <isDefault>true</isDefault>
      <onFailure>false</onFailure>
      <type>RESOLVED</type>
      <matchRules/>
    </opResponse>
    <opResponse id="fe2d1d40-8a4d-4112-af40-5484b42aa70b">
      <annotation></annotation>
      <name>failure</name>
      <isDefault>false</isDefault>
      <onFailure>true</onFailure>
      <type>ERROR</type>
      <matchRules/>
    </opResponse>
  </possibleResponses>
  <availableResultExpressions/>
  <resultExpression id="867bad18-30c5-4b38-af84-d3ed0031a6fa">
    <annotation></annotation>
    <name>FailureMessage</name>
    <fieldName>FailureMessage</fieldName>
    <sourceType>RAWRESULT</sourceType>
    <filters/>
  </resultExpression>
  <iconSpec id="fce14b7a-d030-4df6-834f-e1dae602d7d9">
    <baseIcon>flow.png</baseIcon>
    <basePath>System</basePath>
    <readOnly>false</readOnly>
    <layers/>
  </iconSpec>
  <callouts/>
  <checkPointFlow>true</checkPointFlow>
  <compatibleRuntimeContext>false</compatibleRuntimeContext>
  <historyCheckPointFlow>true</historyCheckPointFlow>
  <steps>
    <step id="67c598ef-87bd-4e69-9510-c7e0af7e9658">
      <annotation>b946af6f-e321-4ae0-a052-b88bc2006e31.67c598ef-87bd-4e69-9510-c7e0af7e9658.description</annotation>
      <name>FS Create Directory</name>
      <bounds>
        <x>107.0</x>
        <y>131.0</y>
      </bounds>
      <layer>-1</layer>
      <hideInbound>false</hideInbound>
      <addResultToRunContext>false</addResultToRunContext>
      <isCriticalStep>false</isCriticalStep>
      <isNonBlocking>false</isNonBlocking>
      <isParallelStep>false</isParallelStep>
      <isSingleResponse>false</isSingleResponse>
      <recordInHistory>false</recordInHistory>
      <recordRawOutput>true</recordRawOutput>
      <recordPrimaryOutput>true</recordPrimaryOutput>
      <checkPointStep>true</checkPointStep>
      <historyCheckPointStep>true</historyCheckPointStep>
      <scriptResultStep>false</scriptResultStep>
      <userPrompt></userPrompt>
      <bindings>
        <userInputBinding id="b23633aa-88e0-4ed8-b491-a7a6a6dd335a">
          <annotation></annotation>
          <toContextKey></toContextKey>
          <fromContextKey></fromContextKey>
          <assignFromContext>true</assignFromContext>
          <assignToContext>false</assignToContext>
          <inputType>STRING</inputType>
          <isList>false</isList>
          <required>true</required>
          <isPersisted>true</isPersisted>
          <inputSymbol>path</inputSymbol>
          <listDelimiter>,</listDelimiter>
          <record>false</record>
          <prompt></prompt>
          <isMultiSelect>false</isMultiSelect>
          <sourceDelimiter>|</sourceDelimiter>
        </userInputBinding>
      </bindings>
      <transitions>
        <transition id="dd9fbc6a-d5ef-4b91-b0a3-a78ee453c6a7">
          <annotation></annotation>
          <name>success</name>
          <command>NEXT</command>
          <linkMode>false</linkMode>
          <responseSymbol>success</responseSymbol>
          <shouldHandoff>false</shouldHandoff>
          <transitionValue>0.0</transitionValue>
          <destination>
            <refId>2bc36ae7-a6a1-4fd7-8ec6-eae9ad892b2a</refId>
          </destination>
          <source>
            <refId>67c598ef-87bd-4e69-9510-c7e0af7e9658</refId>
          </source>
          <positions>
            <point>
              <x>157.0</x>
              <y>165.0</y>
            </point>
            <point>
              <x>280.0</x>
              <y>223.0</y>
            </point>
          </positions>
          <labelPosition>
            <x>333.0</x>
            <y>0.0</y>
          </labelPosition>
        </transition>
        <transition id="52935dca-b7cb-4cb4-9b33-971bb6c406f2">
          <annotation></annotation>
          <name>failure</name>
          <command>NEXT</command>
          <linkMode>false</linkMode>
          <responseSymbol>failure</responseSymbol>
          <shouldHandoff>false</shouldHandoff>
          <transitionValue>0.0</transitionValue>
          <destination>
            <refId>1e9ec522-601c-46ed-8471-72af2a15e47b</refId>
          </destination>
          <source>
            <refId>67c598ef-87bd-4e69-9510-c7e0af7e9658</refId>
          </source>
          <positions>
            <point>
              <x>157.0</x>
              <y>165.0</y>
            </point>
            <point>
              <x>127.0</x>
              <y>344.0</y>
            </point>
          </positions>
          <labelPosition>
            <x>333.0</x>
            <y>0.0</y>
          </labelPosition>
        </transition>
      </transitions>
      <properties/>
      <opRef>
        <refId>612400c6-c7fd-4922-93a2-d43b5f09cc26</refId>
      </opRef>
      <assignments/>
      <throttleSize>0</throttleSize>
    </step>
    <returnStep id="2bc36ae7-a6a1-4fd7-8ec6-eae9ad892b2a">
      <annotation></annotation>
      <name>Resolved : success</name>
      <bounds>
        <x>310.0</x>
        <y>158.0</y>
      </bounds>
      <layer>-1</layer>
      <hideInbound>false</hideInbound>
      <addResultToRunContext>false</addResultToRunContext>
      <isCriticalStep>false</isCriticalStep>
      <isNonBlocking>false</isNonBlocking>
      <isParallelStep>false</isParallelStep>
      <isSingleResponse>false</isSingleResponse>
      <recordInHistory>false</recordInHistory>
      <recordRawOutput>true</recordRawOutput>
      <recordPrimaryOutput>true</recordPrimaryOutput>
      <checkPointStep>true</checkPointStep>
      <historyCheckPointStep>true</historyCheckPointStep>
      <scriptResultStep>false</scriptResultStep>
      <userPrompt></userPrompt>
      <bindings/>
      <transitions>
        <transition id="e8f21e1c-8560-4605-b41e-d9ebbfa7616a">
          <annotation></annotation>
          <name>return</name>
          <command>NEXT</command>
          <linkMode>false</linkMode>
          <responseSymbol>success</responseSymbol>
          <shouldHandoff>false</shouldHandoff>
          <transitionValue>0.0</transitionValue>
          <destination>
            <refId>2bc36ae7-a6a1-4fd7-8ec6-eae9ad892b2a</refId>
          </destination>
          <source>
            <refId>2bc36ae7-a6a1-4fd7-8ec6-eae9ad892b2a</refId>
          </source>
          <positions/>
        </transition>
      </transitions>
      <properties/>
      <returnStepType>RESOLVED</returnStepType>
      <assignments/>
    </returnStep>
    <returnStep id="1e9ec522-601c-46ed-8471-72af2a15e47b">
      <annotation></annotation>
      <name>Error : failure</name>
      <bounds>
        <x>77.0</x>
        <y>310.0</y>
      </bounds>
      <layer>-1</layer>
      <hideInbound>false</hideInbound>
      <addResultToRunContext>false</addResultToRunContext>
      <isCriticalStep>false</isCriticalStep>
      <isNonBlocking>false</isNonBlocking>
      <isParallelStep>false</isParallelStep>
      <isSingleResponse>false</isSingleResponse>
      <recordInHistory>false</recordInHistory>
      <recordRawOutput>true</recordRawOutput>
      <recordPrimaryOutput>true</recordPrimaryOutput>
      <checkPointStep>true</checkPointStep>
      <historyCheckPointStep>true</historyCheckPointStep>
      <scriptResultStep>false</scriptResultStep>
      <userPrompt></userPrompt>
      <bindings/>
      <transitions>
        <transition id="2615f907-d5d7-43bd-8b96-d8e1fbeed5b2">
          <annotation></annotation>
          <name>return</name>
          <command>NEXT</command>
          <linkMode>false</linkMode>
          <responseSymbol>failure</responseSymbol>
          <shouldHandoff>false</shouldHandoff>
          <transitionValue>0.0</transitionValue>
          <destination>
            <refId>1e9ec522-601c-46ed-8471-72af2a15e47b</refId>
          </destination>
          <source>
            <refId>1e9ec522-601c-46ed-8471-72af2a15e47b</refId>
          </source>
          <positions/>
        </transition>
      </transitions>
      <properties/>
      <returnStepType>ERROR</returnStepType>
      <assignments/>
    </returnStep>
  </steps>
  <startSteps>67c598ef-87bd-4e69-9510-c7e0af7e9658</startSteps>
</flow>