<?xml version="1.0" encoding="UTF-8"?>
<flow id="314a6f04-8c76-4c55-b1bc-8860710ecba4">
  <descriptionCdata><![CDATA[314a6f04-8c76-4c55-b1bc-8860710ecba4.6744f465-1846-4524-8078-8c2d132662dc.description=This operation writes the data from "contents" input to the requested file. The operation can be used to overwrite existing content of the file, append extra lines to it or even create a new file.\n\nInputs\:\n    source -  Full path to file. If the file does not exist it is created first.\n    contents - The content that should be written to the file. This input field can contain more lines, separated by a delimiter. If it contains the new line character (\\n or \\r\\n), but this is not the delimiter, this character will be escaped and written to file.  \nExample\: "This is line no. 01\\nThis is line no. 2\\n" where \\n is the delimiter.\n    delimiter - Specifies the newline delimiter that is used to split the "contents" input field into separate lines that will be further written to the given file.\nExamples\: \\n, \\r\\n, etc\n    characterSet - The character encoding used to write to the file. \nDefault\: UTF-8. \nValid values\: windows-1252, UTF-16, UTF-16BE,  ISO-8859-1, US-ASCII, Shift_JIS etc.\n    overwrite - Specifies whether to overwrite the file or append to it. \nDefault\: true. \nValid values\: true, false or the empty string. If this is left empty, the file will be overwritten.\n\nResults\:\n    returnResult - This is the primary output. It contains the "success" confirmation message if the operation successfully completes, or an exception message otherwise.\n    returnCode - It has the value 0 if the operation successfully completes and 1 otherwise.\n    exception - This contains an exception message if the operation fails.\n\nResponses\:\n    success - File/directory was written successfully.\n    failure - Unable to write to file/directory, empty contents or source.\n\nExamples\:\n1. This is a valid input example for using this operation on Windows\:\n    source\: C\:\\Program Files\\example.txt\n    contents\: line1,line2,line3\n    delimiter\: ,\n\n2. This is a valid input example for using this operation on Linux\:\n    source\: /root/example.txt\n    contents\: line1,line2,line3\n    delimiter\: ,\n
314a6f04-8c76-4c55-b1bc-8860710ecba4.67bde7ca-24de-4f98-b517-2c7294f2fc43.prompt=Content to write\:
314a6f04-8c76-4c55-b1bc-8860710ecba4.73bfe257-025b-4c4b-9026-f46ec0438f94.prompt=Source File\:
]]></descriptionCdata>
  <annotation></annotation>
  <name>write_flow</name>
  <categories/>
  <inputs>
    <staticBinding id="922ef68c-51ba-4787-9310-4f0e1b43d54c">
      <annotation></annotation>
      <assignFromContext>false</assignFromContext>
      <assignToContext>false</assignToContext>
      <inputType>STRING</inputType>
      <isList>false</isList>
      <required>false</required>
      <isPersisted>true</isPersisted>
      <inputSymbol>fin_source</inputSymbol>
      <listDelimiter>,</listDelimiter>
      <value>C:\_dev\123.txt</value>
      <record>false</record>
    </staticBinding>
    <staticBinding id="f374cccf-8d55-468b-a0e6-55d80b6710e1">
      <annotation></annotation>
      <assignFromContext>false</assignFromContext>
      <assignToContext>false</assignToContext>
      <inputType>STRING</inputType>
      <isList>false</isList>
      <required>false</required>
      <isPersisted>true</isPersisted>
      <inputSymbol>fin_content</inputSymbol>
      <listDelimiter>,</listDelimiter>
      <value>hi</value>
      <record>false</record>
    </staticBinding>
  </inputs>
  <possibleResponses>
    <opResponse id="1648829c-ecff-490e-b112-d0273bf4cb70">
      <annotation></annotation>
      <name>unknown</name>
      <isDefault>false</isDefault>
      <onFailure>false</onFailure>
      <type>NO_ACTION_TAKEN</type>
      <matchRules/>
    </opResponse>
  </possibleResponses>
  <availableResultExpressions/>
  <resultExpression id="69131b43-f831-47a4-8ffa-e5a5241513a6">
    <annotation></annotation>
    <name>FailureMessage</name>
    <fieldName>FailureMessage</fieldName>
    <sourceType>RAWRESULT</sourceType>
    <filters/>
  </resultExpression>
  <iconSpec id="7dcaabc7-e1ab-4e7d-9e0f-b5a313924f6e">
    <baseIcon>flow.png</baseIcon>
    <basePath>System</basePath>
    <readOnly>false</readOnly>
    <layers/>
  </iconSpec>
  <callouts/>
  <checkPointFlow>true</checkPointFlow>
  <compatibleRuntimeContext>false</compatibleRuntimeContext>
  <historyCheckPointFlow>true</historyCheckPointFlow>
  <steps>
    <step id="6744f465-1846-4524-8078-8c2d132662dc">
      <annotation>314a6f04-8c76-4c55-b1bc-8860710ecba4.6744f465-1846-4524-8078-8c2d132662dc.description</annotation>
      <name>Write to File</name>
      <bounds>
        <x>504.0</x>
        <y>83.0</y>
      </bounds>
      <layer>-1</layer>
      <hideInbound>false</hideInbound>
      <addResultToRunContext>false</addResultToRunContext>
      <isCriticalStep>false</isCriticalStep>
      <isNonBlocking>false</isNonBlocking>
      <isParallelStep>false</isParallelStep>
      <isSingleResponse>false</isSingleResponse>
      <recordInHistory>false</recordInHistory>
      <recordRawOutput>true</recordRawOutput>
      <recordPrimaryOutput>true</recordPrimaryOutput>
      <checkPointStep>true</checkPointStep>
      <historyCheckPointStep>true</historyCheckPointStep>
      <scriptResultStep>false</scriptResultStep>
      <userPrompt></userPrompt>
      <bindings>
        <userInputBinding id="73bfe257-025b-4c4b-9026-f46ec0438f94">
          <annotation></annotation>
          <toContextKey></toContextKey>
          <fromContextKey>fin_source</fromContextKey>
          <assignFromContext>true</assignFromContext>
          <assignToContext>false</assignToContext>
          <inputType>STRING</inputType>
          <isList>false</isList>
          <required>true</required>
          <isPersisted>true</isPersisted>
          <inputSymbol>source</inputSymbol>
          <listDelimiter>,</listDelimiter>
          <record>false</record>
          <prompt>314a6f04-8c76-4c55-b1bc-8860710ecba4.73bfe257-025b-4c4b-9026-f46ec0438f94.prompt</prompt>
          <isMultiSelect>false</isMultiSelect>
          <sourceDelimiter>|</sourceDelimiter>
        </userInputBinding>
        <userInputBinding id="67bde7ca-24de-4f98-b517-2c7294f2fc43">
          <annotation></annotation>
          <toContextKey></toContextKey>
          <fromContextKey>fin_content</fromContextKey>
          <assignFromContext>true</assignFromContext>
          <assignToContext>false</assignToContext>
          <inputType>STRING</inputType>
          <isList>false</isList>
          <required>true</required>
          <isPersisted>true</isPersisted>
          <inputSymbol>contents</inputSymbol>
          <listDelimiter>,</listDelimiter>
          <record>false</record>
          <prompt>314a6f04-8c76-4c55-b1bc-8860710ecba4.67bde7ca-24de-4f98-b517-2c7294f2fc43.prompt</prompt>
          <isMultiSelect>false</isMultiSelect>
          <sourceDelimiter>|</sourceDelimiter>
        </userInputBinding>
        <staticBinding id="90a59e57-f39d-4362-9649-906bd30d3f7c">
          <annotation></annotation>
          <assignFromContext>false</assignFromContext>
          <assignToContext>false</assignToContext>
          <inputType>STRING</inputType>
          <isList>false</isList>
          <required>false</required>
          <isPersisted>true</isPersisted>
          <inputSymbol>delimiter</inputSymbol>
          <listDelimiter>,</listDelimiter>
          <record>false</record>
        </staticBinding>
        <staticBinding id="adf1d1af-d740-463b-9150-551a5397d89b">
          <annotation></annotation>
          <assignFromContext>false</assignFromContext>
          <assignToContext>false</assignToContext>
          <inputType>STRING</inputType>
          <isList>false</isList>
          <required>false</required>
          <isPersisted>true</isPersisted>
          <inputSymbol>characterSet</inputSymbol>
          <listDelimiter>,</listDelimiter>
          <record>false</record>
        </staticBinding>
        <userInputBinding id="290afee3-b824-4145-9472-3cefce7e4063">
          <annotation></annotation>
          <assignFromContext>false</assignFromContext>
          <assignToContext>false</assignToContext>
          <inputType>STRING</inputType>
          <isList>false</isList>
          <required>false</required>
          <isPersisted>true</isPersisted>
          <inputSymbol>overwrite</inputSymbol>
          <listDelimiter>,</listDelimiter>
          <record>false</record>
          <prompt></prompt>
          <isMultiSelect>false</isMultiSelect>
          <link>
            <refId>362bc113-e130-45d5-be90-832d5de87730</refId>
            <refName>Boolean</refName>
          </link>
          <sourceDelimiter>|</sourceDelimiter>
        </userInputBinding>
      </bindings>
      <transitions>
        <transition id="e172039f-864f-4d4b-a37a-da91e6c23e7a">
          <annotation></annotation>
          <name>success</name>
          <command>NEXT</command>
          <linkMode>false</linkMode>
          <responseSymbol>success</responseSymbol>
          <shouldHandoff>false</shouldHandoff>
          <transitionValue>0.0</transitionValue>
          <destination>
            <refId>1b1cf49e-4bb8-4ba9-97f2-51eb3175467e</refId>
          </destination>
          <source>
            <refId>6744f465-1846-4524-8078-8c2d132662dc</refId>
          </source>
          <positions>
            <point>
              <x>219.0</x>
              <y>121.0</y>
            </point>
            <point>
              <x>224.0</x>
              <y>217.0</y>
            </point>
          </positions>
          <labelPosition>
            <x>333.0</x>
            <y>0.0</y>
          </labelPosition>
        </transition>
        <transition id="17c735cb-6eb8-491d-8536-c20e33ef0006">
          <annotation></annotation>
          <name>failure</name>
          <command>NEXT</command>
          <linkMode>false</linkMode>
          <responseSymbol>failure</responseSymbol>
          <shouldHandoff>false</shouldHandoff>
          <transitionValue>0.0</transitionValue>
          <destination>
            <refId>1b1cf49e-4bb8-4ba9-97f2-51eb3175467e</refId>
          </destination>
          <source>
            <refId>6744f465-1846-4524-8078-8c2d132662dc</refId>
          </source>
          <positions>
            <point>
              <x>219.0</x>
              <y>121.0</y>
            </point>
            <point>
              <x>243.59676148631786</x>
              <y>181.16643021141599</y>
            </point>
            <point>
              <x>243.4021124763201</x>
              <y>210.16913270108492</y>
            </point>
            <point>
              <x>218.0</x>
              <y>270.0</y>
            </point>
          </positions>
          <labelPosition>
            <x>333.0</x>
            <y>0.0</y>
          </labelPosition>
        </transition>
      </transitions>
      <properties/>
      <opRef>
        <refId>af728dc4-d7a0-4e8e-917a-74c188f2e470</refId>
      </opRef>
      <assignments/>
      <throttleSize>0</throttleSize>
    </step>
    <returnStep id="1b1cf49e-4bb8-4ba9-97f2-51eb3175467e">
      <annotation></annotation>
      <name>No Action Taken : unknown</name>
      <bounds>
        <x>168.0</x>
        <y>236.0</y>
      </bounds>
      <layer>-1</layer>
      <hideInbound>false</hideInbound>
      <addResultToRunContext>false</addResultToRunContext>
      <isCriticalStep>false</isCriticalStep>
      <isNonBlocking>false</isNonBlocking>
      <isParallelStep>false</isParallelStep>
      <isSingleResponse>false</isSingleResponse>
      <recordInHistory>false</recordInHistory>
      <recordRawOutput>true</recordRawOutput>
      <recordPrimaryOutput>true</recordPrimaryOutput>
      <checkPointStep>true</checkPointStep>
      <historyCheckPointStep>true</historyCheckPointStep>
      <scriptResultStep>false</scriptResultStep>
      <userPrompt></userPrompt>
      <bindings/>
      <transitions>
        <transition id="ce5d3bf2-3e6f-4e3b-a3fb-c48d77f01cb9">
          <annotation></annotation>
          <name>return</name>
          <command>NEXT</command>
          <linkMode>false</linkMode>
          <responseSymbol>unknown</responseSymbol>
          <shouldHandoff>false</shouldHandoff>
          <transitionValue>0.0</transitionValue>
          <destination>
            <refId>1b1cf49e-4bb8-4ba9-97f2-51eb3175467e</refId>
          </destination>
          <source>
            <refId>1b1cf49e-4bb8-4ba9-97f2-51eb3175467e</refId>
          </source>
          <positions/>
        </transition>
      </transitions>
      <properties/>
      <returnStepType>NO_ACTION_TAKEN</returnStepType>
      <assignments/>
    </returnStep>
  </steps>
  <startSteps>6744f465-1846-4524-8078-8c2d132662dc</startSteps>
</flow>